<?xml version="1.0" encoding="UTF-8"?>

<!-- generated on 2025-07-16 15:12:53 by Eclipse SUMO netedit Version 1.18.0
<configuration xmlns:xsi="http://www.w3.org/2001/XMLSchema-instance" xsi:noNamespaceSchemaLocation="http://sumo.dlr.de/xsd/neteditConfiguration.xsd">

    <input>
        <sumo-net-file value="C:\Users\Mates\Desktop\maps\ingolstadt_center2.net.xml"/>
    </input>

    <output>
        <output-file value="C:\Users\Mates\Desktop\maps\ingolstadt_center2.net.xml"/>
    </output>

    <processing>
        <geometry.min-radius.fix.railways value="false"/>
        <geometry.max-grade.fix value="false"/>
        <offset.disable-normalization value="true"/>
        <lefthand value="0"/>
    </processing>

    <junctions>
        <no-turnarounds value="true"/>
        <junctions.corner-detail value="5"/>
        <junctions.limit-turn-speed value="5.50"/>
        <rectangular-lane-cut value="0"/>
    </junctions>

    <pedestrian>
        <walkingareas value="0"/>
    </pedestrian>

</configuration>
-->

<net version="1.16" junctionCornerDetail="5" limitTurnSpeed="5.50" xmlns:xsi="http://www.w3.org/2001/XMLSchema-instance" xsi:noNamespaceSchemaLocation="http://sumo.dlr.de/xsd/net_file.xsd">

    <location netOffset="-464198.88,-4952821.58" convBoundary="214070.36,451071.56,215957.07,453327.01" origBoundary="8.520516,43.618350,29.768112,49.031374" projParameter="+proj=utm +zone=32 +ellps=WGS84 +datum=WGS84 +units=m +no_defs"/>

    <type id="highway.footway" priority="1" numLanes="1" speed="2.78" allow="pedestrian" oneway="1" width="2.00"/>
    <type id="highway.living_street" priority="3" numLanes="1" speed="2.78" disallow="tram rail_urban rail rail_electric ship" oneway="1"/>
    <type id="highway.primary" priority="9" numLanes="2" speed="27.78" disallow="tram rail_urban rail rail_electric ship" oneway="1"/>
    <type id="highway.residential" priority="4" numLanes="1" speed="13.89" disallow="tram rail_urban rail rail_electric ship" oneway="1"/>
    <type id="highway.secondary" priority="7" numLanes="2" speed="27.78" disallow="tram rail_urban rail rail_electric ship" oneway="1"/>
    <type id="highway.secondary_link" priority="6" numLanes="1" speed="22.22" disallow="tram rail_urban rail rail_electric ship" oneway="1"/>
    <type id="highway.service" priority="2" numLanes="1" speed="5.56" allow="pedestrian delivery bicycle" oneway="1"/>
    <type id="highway.tertiary" priority="6" numLanes="1" speed="22.22" disallow="tram rail_urban rail rail_electric ship" oneway="1"/>
    <type id="highway.tertiary_link" priority="5" numLanes="1" speed="22.22" disallow="tram rail_urban rail rail_electric ship" oneway="1"/>
    <type id="highway.track" priority="1" numLanes="1" speed="5.56" disallow="tram rail_urban rail rail_electric ship" oneway="1"/>
    <type id="highway.unclassified" priority="5" numLanes="1" speed="13.89" disallow="tram rail_urban rail rail_electric ship" oneway="1"/>

    <edge id=":1051308709_0" function="internal">
        <lane id=":1051308709_0_0" index="0" disallow="pedestrian tram rail_urban rail rail_electric rail_fast ship" speed="7.29" length="9.59" shape="215087.42,451486.55 215084.80,451487.17 215082.85,451488.36 215081.55,451490.13 215080.92,451492.47"/>
    </edge>
    <edge id=":1051308709_1" function="internal">
        <lane id=":1051308709_1_0" index="0" disallow="pedestrian tram rail_urban rail rail_electric rail_fast ship" speed="13.89" length="8.99" shape="215081.95,451483.54 215080.92,451492.47"/>
        <lane id=":1051308709_1_1" index="1" disallow="pedestrian tram rail_urban rail rail_electric rail_fast ship" speed="13.89" length="8.99" shape="215078.77,451483.17 215077.74,451492.10"/>
    </edge>
    <edge id=":1066801369_0" function="internal">
        <lane id=":1066801369_0_0" index="0" disallow="pedestrian tram rail_urban rail rail_electric rail_fast ship" speed="13.89" length="8.13" shape="214997.53,453018.10 214996.45,453015.95 214995.01,453014.85 214993.52,453013.76 214992.30,453011.65"/>
        <lane id=":1066801369_0_1" index="1" disallow="pedestrian tram rail_urban rail rail_electric rail_fast ship" speed="13.89" length="8.13" shape="214997.53,453018.10 214995.35,453010.65"/>
    </edge>
    <edge id=":1066801369_2" function="internal">
        <lane id=":1066801369_2_0" index="0" disallow="pedestrian tram rail_urban rail rail_electric rail_fast ship" speed="13.89" length="7.96" shape="214998.39,453009.66 215000.63,453017.29"/>
    </edge>
    <edge id=":1261109188_0" function="internal">
        <lane id=":1261109188_0_0" index="0" disallow="pedestrian tram rail_urban rail rail_electric rail_fast ship" speed="7.57" length="11.28" shape="214981.95,451867.12 214979.21,451867.73 214977.12,451868.95 214975.69,451870.79 214974.92,451873.25"/>
        <lane id=":1261109188_0_1" index="1" disallow="pedestrian tram rail_urban rail rail_electric rail_fast ship" speed="8.33" length="11.28" shape="214981.95,451867.12 214977.78,451867.82 214974.69,451868.98 214972.68,451870.62 214971.76,451872.74"/>
    </edge>
    <edge id=":1261109188_2" function="internal">
        <lane id=":1261109188_2_0" index="0" disallow="pedestrian tram rail_urban rail rail_electric rail_fast ship" speed="13.89" length="9.04" shape="214976.05,451864.23 214974.92,451873.25"/>
        <lane id=":1261109188_2_1" index="1" disallow="pedestrian tram rail_urban rail rail_electric rail_fast ship" speed="13.89" length="9.04" shape="214972.88,451863.81 214971.76,451872.74"/>
    </edge>
    <edge id=":1261109188_4" function="internal">
        <lane id=":1261109188_4_0" index="0" disallow="pedestrian tram rail_urban rail rail_electric rail_fast ship" speed="13.89" length="8.86" shape="214965.44,451871.72 214966.53,451862.97"/>
        <lane id=":1261109188_4_1" index="1" disallow="pedestrian tram rail_urban rail rail_electric rail_fast ship" speed="13.89" length="8.86" shape="214968.60,451872.23 214969.71,451863.39"/>
    </edge>
    <edge id=":1261109191_0" function="internal">
        <lane id=":1261109191_0_0" index="0" disallow="pedestrian tram rail_urban rail rail_electric rail_fast ship" speed="12.18" length="15.60" shape="215002.98,451872.59 215001.25,451870.88 214998.31,451869.38 214994.14,451868.08 214988.75,451866.99"/>
    </edge>
    <edge id=":1261109191_1" function="internal">
        <lane id=":1261109191_1_0" index="0" disallow="pedestrian tram rail_urban rail rail_electric rail_fast ship" speed="13.89" length="14.09" shape="215002.98,451872.59 215000.37,451869.31 214997.98,451867.54 214995.58,451865.78 214992.96,451862.51"/>
        <lane id=":1261109191_1_1" index="1" disallow="pedestrian tram rail_urban rail rail_electric rail_fast ship" speed="13.89" length="14.09" shape="215002.98,451872.59 214995.67,451860.83"/>
    </edge>
    <edge id=":1261109191_3" function="internal">
        <lane id=":1261109191_3_0" index="0" disallow="pedestrian tram rail_urban rail rail_electric rail_fast ship" speed="13.89" length="13.87" shape="214998.39,451859.14 215005.71,451870.92"/>
    </edge>
    <edge id=":1307128385_0" function="internal">
        <lane id=":1307128385_0_0" index="0" disallow="pedestrian tram rail_urban rail rail_electric rail_fast ship" speed="13.89" length="0.26" shape="215065.52,451565.87 215065.46,451566.03"/>
        <lane id=":1307128385_0_1" index="1" disallow="pedestrian tram rail_urban rail rail_electric rail_fast ship" speed="13.89" length="0.26" shape="215062.54,451564.71 215062.44,451564.95"/>
        <lane id=":1307128385_0_2" index="2" disallow="pedestrian tram rail_urban rail rail_electric rail_fast ship" speed="13.89" length="0.26" shape="215059.55,451563.55 215059.43,451563.88"/>
    </edge>
    <edge id=":1307128385_3" function="internal">
        <lane id=":1307128385_3_0" index="0" disallow="pedestrian tram rail_urban rail rail_electric rail_fast ship" speed="13.89" length="0.48" shape="215053.40,451561.73 215053.59,451561.23"/>
        <lane id=":1307128385_3_1" index="1" disallow="pedestrian tram rail_urban rail rail_electric rail_fast ship" speed="13.89" length="0.48" shape="215056.42,451562.80 215056.57,451562.39"/>
    </edge>
    <edge id=":1315532829_0" function="internal">
        <lane id=":1315532829_0_0" index="0" disallow="pedestrian tram rail_urban rail rail_electric rail_fast ship" speed="13.89" length="7.74" shape="215201.61,452238.04 215200.53,452235.96 215199.48,452234.68 215198.49,452233.38 215197.60,452231.23"/>
        <lane id=":1315532829_0_1" index="1" disallow="pedestrian tram rail_urban rail rail_electric rail_fast ship" speed="13.89" length="7.74" shape="215204.59,452236.88 215203.55,452234.87 215202.51,452233.64 215201.54,452232.40 215200.67,452230.33"/>
        <lane id=":1315532829_0_2" index="2" disallow="pedestrian tram rail_urban rail rail_electric rail_fast ship" speed="13.89" length="7.74" shape="215204.59,452236.88 215204.03,452234.75 215204.05,452233.19 215204.13,452231.62 215203.74,452229.43"/>
    </edge>
    <edge id=":1315532866_0" function="internal">
        <lane id=":1315532866_0_0" index="0" disallow="pedestrian tram rail_urban rail rail_electric rail_fast ship" speed="13.89" length="7.83" shape="215112.83,452156.77 215115.10,452157.45 215116.76,452157.59 215118.40,452157.78 215120.59,452158.61"/>
        <lane id=":1315532866_0_1" index="1" disallow="pedestrian tram rail_urban rail rail_electric rail_fast ship" speed="13.89" length="7.83" shape="215111.60,452159.72 215113.79,452160.38 215115.41,452160.49 215117.00,452160.66 215119.13,452161.46"/>
        <lane id=":1315532866_0_2" index="2" disallow="pedestrian tram rail_urban rail rail_electric rail_fast ship" speed="13.89" length="7.83" shape="215111.60,452159.72 215113.55,452160.81 215114.68,452161.92 215115.79,452163.07 215117.67,452164.31"/>
    </edge>
    <edge id=":1438846501_0" function="internal">
        <lane id=":1438846501_0_0" index="0" disallow="pedestrian tram rail_urban rail rail_electric rail_fast ship" speed="13.89" length="0.64" shape="214934.75,451387.69 214934.05,451387.75"/>
        <lane id=":1438846501_0_1" index="1" disallow="pedestrian tram rail_urban rail rail_electric rail_fast ship" speed="13.89" length="0.64" shape="214934.43,451384.51 214933.85,451384.56"/>
    </edge>
    <edge id=":1438846501_2" function="internal">
        <lane id=":1438846501_2_0" index="0" disallow="pedestrian tram rail_urban rail rail_electric rail_fast ship" speed="13.89" length="0.34" shape="214933.26,451374.97 214933.47,451374.96"/>
        <lane id=":1438846501_2_1" index="1" disallow="pedestrian tram rail_urban rail rail_electric rail_fast ship" speed="13.89" length="0.34" shape="214933.46,451378.17 214933.79,451378.14"/>
        <lane id=":1438846501_2_2" index="2" disallow="pedestrian tram rail_urban rail rail_electric rail_fast ship" speed="13.89" length="0.34" shape="214933.65,451381.36 214934.11,451381.33"/>
    </edge>
    <edge id=":1448519178_0" function="internal">
        <lane id=":1448519178_0_0" index="0" disallow="pedestrian tram rail_urban rail rail_electric rail_fast ship" speed="13.89" length="0.66" shape="214539.44,451247.40 214538.84,451247.00"/>
        <lane id=":1448519178_0_1" index="1" disallow="pedestrian tram rail_urban rail rail_electric rail_fast ship" speed="13.89" length="0.66" shape="214541.18,451244.71 214540.68,451244.37"/>
    </edge>
    <edge id=":1448519178_2" function="internal">
        <lane id=":1448519178_2_0" index="0" disallow="pedestrian tram rail_urban rail rail_electric rail_fast ship" speed="13.89" length="0.35" shape="214546.19,451236.51 214546.37,451236.64"/>
        <lane id=":1448519178_2_1" index="1" disallow="pedestrian tram rail_urban rail rail_electric rail_fast ship" speed="13.89" length="0.35" shape="214544.35,451239.13 214544.64,451239.33"/>
        <lane id=":1448519178_2_2" index="2" disallow="pedestrian tram rail_urban rail rail_electric rail_fast ship" speed="13.89" length="0.35" shape="214542.52,451241.75 214542.91,451242.02"/>
    </edge>
    <edge id=":1488941791_0" function="internal">
        <lane id=":1488941791_0_0" index="0" disallow="pedestrian tram rail_urban rail rail_electric rail_fast ship" speed="13.89" length="8.01" shape="214844.23,451379.81 214836.73,451377.00"/>
        <lane id=":1488941791_0_1" index="1" disallow="pedestrian tram rail_urban rail rail_electric rail_fast ship" speed="13.89" length="8.01" shape="214845.35,451376.81 214837.85,451374.00"/>
    </edge>
    <edge id=":1488941791_2" function="internal">
        <lane id=":1488941791_2_0" index="0" disallow="pedestrian tram rail_urban rail rail_electric rail_fast ship" speed="13.89" length="8.53" shape="214840.10,451368.01 214842.58,451368.41 214844.40,451367.92 214846.23,451367.42 214848.71,451367.82"/>
        <lane id=":1488941791_2_1" index="1" disallow="pedestrian tram rail_urban rail rail_electric rail_fast ship" speed="13.89" length="8.53" shape="214838.98,451371.01 214841.46,451371.40 214843.28,451370.91 214845.11,451370.42 214847.59,451370.81"/>
        <lane id=":1488941791_2_2" index="2" disallow="pedestrian tram rail_urban rail rail_electric rail_fast ship" speed="13.89" length="8.53" shape="214838.98,451371.01 214846.47,451373.81"/>
    </edge>
    <edge id=":1505488446_0" function="internal">
        <lane id=":1505488446_0_0" index="0" disallow="pedestrian tram rail_urban rail rail_electric rail_fast ship" speed="3.65" length="4.67" shape="214473.91,452805.80 214472.51,452806.16 214471.65,452805.92 214471.32,452805.08 214471.53,452803.66"/>
    </edge>
    <edge id=":1507762115_0" function="internal">
        <lane id=":1507762115_0_0" index="0" disallow="pedestrian tram rail_urban rail rail_electric rail_fast ship" speed="13.89" length="4.09" shape="214977.54,451851.39 214977.50,451852.65 214977.44,451853.51 214977.35,451854.37 214977.19,451855.61"/>
        <lane id=":1507762115_0_1" index="1" disallow="pedestrian tram rail_urban rail rail_electric rail_fast ship" speed="13.89" length="4.09" shape="214974.35,451851.28 214974.30,451852.45 214974.25,451853.24 214974.17,451854.04 214974.02,451855.20"/>
    </edge>
    <edge id=":1507762115_2" function="internal">
        <lane id=":1507762115_2_0" index="0" disallow="pedestrian tram rail_urban rail rail_electric rail_fast ship" speed="13.89" length="3.47" shape="214967.67,451854.36 214967.80,451853.38 214967.87,451852.71 214967.91,451852.04 214967.95,451851.05"/>
        <lane id=":1507762115_2_1" index="1" disallow="pedestrian tram rail_urban rail rail_electric rail_fast ship" speed="13.89" length="3.47" shape="214970.84,451854.78 214970.98,451853.71 214971.06,451852.98 214971.11,451852.24 214971.15,451851.17"/>
    </edge>
    <edge id=":1507762172_0" function="internal">
        <lane id=":1507762172_0_0" index="0" disallow="pedestrian tram rail_urban rail rail_electric rail_fast ship" speed="13.89" length="8.55" shape="214947.31,452048.75 214947.44,452051.28 214948.29,452052.98 214949.12,452054.68 214949.22,452057.20"/>
        <lane id=":1507762172_0_1" index="1" disallow="pedestrian tram rail_urban rail rail_electric rail_fast ship" speed="13.89" length="8.55" shape="214944.15,452048.29 214944.28,452050.80 214945.12,452052.49 214945.96,452054.18 214946.06,452056.69"/>
        <lane id=":1507762172_0_2" index="2" disallow="pedestrian tram rail_urban rail rail_electric rail_fast ship" speed="13.89" length="8.55" shape="214944.15,452048.29 214942.90,452056.18"/>
    </edge>
    <edge id=":1507762172_3" function="internal">
        <lane id=":1507762172_3_0" index="0" disallow="pedestrian tram rail_urban rail rail_electric rail_fast ship" speed="13.89" length="7.93" shape="214936.53,452055.15 214937.82,452047.35"/>
        <lane id=":1507762172_3_1" index="1" disallow="pedestrian tram rail_urban rail rail_electric rail_fast ship" speed="13.89" length="7.93" shape="214939.69,452055.66 214940.98,452047.82"/>
    </edge>
    <edge id=":1507762191_0" function="internal">
        <lane id=":1507762191_0_0" index="0" disallow="pedestrian tram rail_urban rail rail_electric rail_fast ship" speed="13.89" length="6.67" shape="214815.50,452097.44 214813.70,452096.47 214812.30,452096.09 214810.95,452095.64 214809.31,452094.48"/>
        <lane id=":1507762191_0_1" index="1" disallow="pedestrian tram rail_urban rail rail_electric rail_fast ship" speed="13.89" length="6.67" shape="214815.50,452097.44 214814.06,452096.12 214813.39,452094.91 214812.76,452093.63 214811.48,452092.12"/>
        <lane id=":1507762191_0_2" index="2" disallow="pedestrian tram rail_urban rail rail_electric rail_fast ship" speed="13.89" length="6.67" shape="214817.33,452094.82 214816.00,452093.57 214815.39,452092.41 214814.83,452091.19 214813.64,452089.76"/>
    </edge>
    <edge id=":1507762274_0" function="internal">
        <lane id=":1507762274_0_0" index="0" disallow="pedestrian tram rail_urban rail rail_electric rail_fast ship" speed="13.89" length="0.41" shape="215220.02,452226.25 215219.97,452226.26 215219.94,452226.27 215219.91,452226.28 215219.86,452226.28"/>
        <lane id=":1507762274_0_1" index="1" disallow="pedestrian tram rail_urban rail rail_electric rail_fast ship" speed="13.89" length="0.41" shape="215219.95,452223.06 215220.61,452223.15"/>
    </edge>
    <edge id=":1540767896_0" function="internal">
        <lane id=":1540767896_0_0" index="0" disallow="pedestrian tram rail_urban rail rail_electric rail_fast ship" speed="13.89" length="1.49" shape="214461.09,452139.40 214460.68,452139.69 214460.39,452139.87 214460.09,452140.04 214459.64,452140.27"/>
        <lane id=":1540767896_0_1" index="1" disallow="pedestrian tram rail_urban rail rail_electric rail_fast ship" speed="13.89" length="1.49" shape="214459.27,452136.77 214458.96,452136.99 214458.74,452137.13 214458.51,452137.25 214458.17,452137.43"/>
    </edge>
    <edge id=":1540767896_2" function="internal">
        <lane id=":1540767896_2_0" index="0" disallow="pedestrian tram rail_urban rail rail_electric rail_fast ship" speed="13.89" length="0.67" shape="214455.24,452131.74 214455.36,452131.68 214455.45,452131.63 214455.52,452131.58 214455.64,452131.50"/>
        <lane id=":1540767896_2_1" index="1" disallow="pedestrian tram rail_urban rail rail_electric rail_fast ship" speed="13.89" length="0.67" shape="214456.71,452134.58 214456.94,452134.47 214457.09,452134.38 214457.24,452134.28 214457.45,452134.14"/>
    </edge>
    <edge id=":1540767902_0" function="internal">
        <lane id=":1540767902_0_0" index="0" disallow="pedestrian tram rail_urban rail rail_electric rail_fast ship" speed="13.89" length="8.51" shape="214402.27,452154.17 214399.78,452154.79 214398.25,452155.95 214396.71,452157.08 214394.22,452157.59"/>
        <lane id=":1540767902_0_1" index="1" disallow="pedestrian tram rail_urban rail rail_electric rail_fast ship" speed="13.89" length="8.51" shape="214402.27,452154.17 214394.20,452154.39"/>
    </edge>
    <edge id=":1540767902_2" function="internal">
        <lane id=":1540767902_2_0" index="0" disallow="pedestrian tram rail_urban rail rail_electric rail_fast ship" speed="13.89" length="7.79" shape="214394.14,452144.79 214401.78,452144.58"/>
        <lane id=":1540767902_2_1" index="1" disallow="pedestrian tram rail_urban rail rail_electric rail_fast ship" speed="13.89" length="7.79" shape="214394.16,452147.99 214401.95,452147.77"/>
        <lane id=":1540767902_2_2" index="2" disallow="pedestrian tram rail_urban rail rail_electric rail_fast ship" speed="13.89" length="7.79" shape="214394.18,452151.19 214402.11,452150.97"/>
    </edge>
    <edge id=":1540767903_0" function="internal">
        <lane id=":1540767903_0_0" index="0" disallow="pedestrian tram rail_urban rail rail_electric rail_fast ship" speed="8.75" length="1.33" shape="214443.59,452160.52 214443.17,452160.10 214442.91,452159.79 214442.71,452159.43 214442.48,452158.89"/>
        <lane id=":1540767903_0_1" index="1" disallow="pedestrian tram rail_urban rail rail_electric rail_fast ship" speed="13.89" length="1.33" shape="214445.81,452158.21 214445.67,452158.07 214445.58,452157.97 214445.52,452157.85 214445.44,452157.67"/>
    </edge>
    <edge id=":1542094261_0" function="internal">
        <lane id=":1542094261_0_0" index="0" disallow="pedestrian tram rail_urban rail rail_electric rail_fast ship" speed="13.89" length="14.52" shape="215413.78,451175.95 215399.34,451177.41"/>
    </edge>
    <edge id=":1542094261_1" function="internal">
        <lane id=":1542094261_1_0" index="0" disallow="pedestrian tram rail_urban rail rail_electric rail_fast ship" speed="8.55" length="3.70" shape="215413.78,451175.95 215410.21,451175.73 215410.10,451175.67"/>
    </edge>
    <edge id=":1542094261_6" function="internal">
        <lane id=":1542094261_6_0" index="0" disallow="pedestrian tram rail_urban rail rail_electric rail_fast ship" speed="8.55" length="10.80" shape="215410.10,451175.67 215407.33,451174.26 215405.14,451171.56 215403.64,451167.62"/>
    </edge>
    <edge id=":1542094261_2" function="internal">
        <lane id=":1542094261_2_0" index="0" disallow="pedestrian tram rail_urban rail rail_electric rail_fast ship" speed="7.15" length="9.88" shape="215406.74,451166.84 215407.77,451169.62 215409.24,451171.54 215411.13,451172.58 215413.45,451172.76"/>
    </edge>
    <edge id=":1542094261_3" function="internal">
        <lane id=":1542094261_3_0" index="0" disallow="pedestrian tram rail_urban rail rail_electric rail_fast ship" speed="7.88" length="15.27" shape="215406.74,451166.84 215407.19,451171.09 215406.10,451174.27 215403.49,451176.38 215399.34,451177.41"/>
    </edge>
    <edge id=":1542094261_4" function="internal">
        <lane id=":1542094261_4_0" index="0" disallow="pedestrian tram rail_urban rail rail_electric rail_fast ship" speed="6.36" length="9.54" shape="215399.01,451174.23 215401.61,451173.58 215403.24,451172.26 215403.92,451170.28 215403.64,451167.62"/>
    </edge>
    <edge id=":1542094261_5" function="internal">
        <lane id=":1542094261_5_0" index="0" disallow="pedestrian tram rail_urban rail rail_electric rail_fast ship" speed="13.89" length="14.51" shape="215399.01,451174.23 215413.45,451172.76"/>
    </edge>
    <edge id=":1649110086_0" function="internal">
        <lane id=":1649110086_0_0" index="0" disallow="pedestrian tram rail_urban rail rail_electric rail_fast ship" speed="8.33" length="0.35" shape="215057.92,452753.23 215057.82,452753.24 215057.75,452753.24 215057.68,452753.25 215057.57,452753.26"/>
    </edge>
    <edge id=":1649110086_1" function="internal">
        <lane id=":1649110086_1_0" index="0" disallow="pedestrian tram rail_urban rail rail_electric rail_fast ship" speed="8.33" length="0.66" shape="215057.17,452750.08 215057.36,452750.06 215057.49,452750.05 215057.63,452750.04 215057.82,452750.03"/>
    </edge>
    <edge id=":1649125265_0" function="internal">
        <lane id=":1649125265_0_0" index="0" disallow="pedestrian tram rail_urban rail rail_electric rail_fast ship" speed="8.33" length="0.19" shape="215039.57,452755.61 215039.38,452755.64"/>
    </edge>
    <edge id=":1649125265_1" function="internal">
        <lane id=":1649125265_1_0" index="0" disallow="pedestrian tram rail_urban rail rail_electric rail_fast ship" speed="8.33" length="0.35" shape="215038.78,452752.49 215039.12,452752.44"/>
    </edge>
    <edge id=":1671593483_0" function="internal">
        <lane id=":1671593483_0_0" index="0" disallow="pedestrian tram rail_urban rail rail_electric rail_fast ship" speed="3.92" length="2.31" shape="214416.61,451828.77 214416.05,451828.50 214415.52,451828.46 214415.01,451828.64 214414.54,451829.04"/>
    </edge>
    <edge id=":1671593483_1" function="internal">
        <lane id=":1671593483_1_0" index="0" disallow="pedestrian tram rail_urban rail rail_electric rail_fast ship" speed="5.56" length="6.93" shape="214412.16,451826.90 214413.58,451825.70 214415.09,451825.16 214416.69,451825.30 214418.37,451826.10"/>
    </edge>
    <edge id=":1769637675_0" function="internal">
        <lane id=":1769637675_0_0" index="0" disallow="pedestrian tram rail_urban rail rail_electric rail_fast ship" speed="5.56" length="11.22" shape="214490.51,452259.32 214488.44,452261.63 214486.15,452262.70 214483.64,452262.54 214480.90,452261.15"/>
    </edge>
    <edge id=":1769637675_1" function="internal">
        <lane id=":1769637675_1_0" index="0" disallow="pedestrian tram rail_urban rail rail_electric rail_fast ship" speed="5.36" length="5.95" shape="214482.74,452258.53 214484.20,452259.28 214485.54,452259.36 214486.75,452258.79 214487.83,452257.56"/>
    </edge>
    <edge id=":1770608862_0" function="internal">
        <lane id=":1770608862_0_0" index="0" disallow="pedestrian tram rail_urban rail rail_electric rail_fast ship" speed="9.72" length="9.12" shape="214519.84,452214.40 214514.85,452222.04"/>
    </edge>
    <edge id=":1770608862_1" function="internal">
        <lane id=":1770608862_1_0" index="0" disallow="pedestrian tram rail_urban rail rail_electric rail_fast ship" speed="6.88" length="1.68" shape="214519.84,452214.40 214518.51,452215.43"/>
    </edge>
    <edge id=":1770608862_4" function="internal">
        <lane id=":1770608862_4_0" index="0" disallow="pedestrian tram rail_urban rail rail_electric rail_fast ship" speed="6.88" length="8.65" shape="214518.51,452215.43 214516.52,452215.47 214513.87,452214.51 214510.56,452212.56"/>
    </edge>
    <edge id=":1770608862_2" function="internal">
        <lane id=":1770608862_2_0" index="0" disallow="pedestrian tram rail_urban rail rail_electric rail_fast ship" speed="6.52" length="8.97" shape="214512.18,452220.29 214513.20,452218.07 214513.28,452216.05 214512.39,452214.21 214510.56,452212.56"/>
    </edge>
    <edge id=":1770608862_3" function="internal">
        <lane id=":1770608862_3_0" index="0" disallow="pedestrian tram rail_urban rail rail_electric rail_fast ship" speed="9.72" length="9.12" shape="214512.18,452220.29 214517.16,452212.65"/>
    </edge>
    <edge id=":1829030840_0" function="internal">
        <lane id=":1829030840_0_0" index="0" disallow="pedestrian tram rail_urban rail rail_electric rail_fast ship" speed="27.78" length="0.27" shape="214798.50,452972.01 214798.63,452972.02"/>
        <lane id=":1829030840_0_1" index="1" disallow="pedestrian tram rail_urban rail rail_electric rail_fast ship" speed="27.78" length="0.27" shape="214798.19,452975.20 214798.60,452975.22"/>
    </edge>
    <edge id=":1834026637_0" function="internal">
        <lane id=":1834026637_0_0" index="0" disallow="pedestrian tram rail_urban rail rail_electric rail_fast ship" speed="13.89" length="0.52" shape="214979.02,451801.20 214979.00,451801.31 214979.00,451801.38 214978.99,451801.45 214978.99,451801.56"/>
        <lane id=":1834026637_0_1" index="1" disallow="pedestrian tram rail_urban rail rail_electric rail_fast ship" speed="13.89" length="0.52" shape="214975.84,451800.82 214975.82,451801.02 214975.80,451801.15 214975.80,451801.29 214975.79,451801.49"/>
    </edge>
    <edge id=":1834026637_2" function="internal">
        <lane id=":1834026637_2_0" index="0" disallow="pedestrian tram rail_urban rail rail_electric rail_fast ship" speed="13.89" length="1.16" shape="214969.39,451801.36 214969.40,451800.97 214969.41,451800.70 214969.44,451800.43 214969.49,451800.05"/>
        <lane id=":1834026637_2_1" index="1" disallow="pedestrian tram rail_urban rail rail_electric rail_fast ship" speed="13.89" length="1.16" shape="214972.59,451801.43 214972.60,451801.13 214972.61,451800.93 214972.63,451800.73 214972.66,451800.43"/>
    </edge>
    <edge id=":1834036320_0" function="internal">
        <lane id=":1834036320_0_0" index="0" disallow="pedestrian tram rail_urban rail rail_electric rail_fast ship" speed="13.89" length="0.31" shape="215047.54,451597.38 215047.39,451597.66"/>
        <lane id=":1834036320_0_1" index="1" disallow="pedestrian tram rail_urban rail rail_electric rail_fast ship" speed="13.89" length="0.31" shape="215044.72,451595.88 215044.57,451596.16"/>
    </edge>
    <edge id=":1834036320_2" function="internal">
        <lane id=":1834036320_2_0" index="0" disallow="pedestrian tram rail_urban rail rail_electric rail_fast ship" speed="13.89" length="0.29" shape="215036.10,451591.64 215036.23,451591.39"/>
        <lane id=":1834036320_2_1" index="1" disallow="pedestrian tram rail_urban rail rail_electric rail_fast ship" speed="13.89" length="0.29" shape="215038.92,451593.14 215039.06,451592.89"/>
        <lane id=":1834036320_2_2" index="2" disallow="pedestrian tram rail_urban rail rail_electric rail_fast ship" speed="13.89" length="0.29" shape="215041.75,451594.65 215041.89,451594.39"/>
    </edge>
    <edge id=":1863143527_0" function="internal">
        <lane id=":1863143527_0_0" index="0" disallow="pedestrian tram rail_urban rail rail_electric rail_fast ship" speed="13.89" length="13.40" shape="215355.87,452499.27 215349.05,452487.73"/>
    </edge>
    <edge id=":1863143527_1" function="internal">
        <lane id=":1863143527_1_0" index="0" disallow="pedestrian tram rail_urban rail rail_electric rail_fast ship" speed="6.67" length="9.62" shape="215355.87,452499.27 215354.19,452496.04 215353.38,452493.51 215353.45,452491.67 215354.38,452490.53"/>
    </edge>
    <edge id=":1863143527_2" function="internal">
        <lane id=":1863143527_2_0" index="0" disallow="pedestrian tram rail_urban rail rail_electric rail_fast ship" speed="6.72" length="9.61" shape="215355.98,452493.30 215354.53,452493.54 215352.89,452492.69 215351.06,452490.76 215349.05,452487.73"/>
    </edge>
    <edge id=":1863143603_0" function="internal">
        <lane id=":1863143603_0_0" index="0" disallow="pedestrian tram rail_urban rail rail_electric rail_fast ship" speed="7.32" length="10.59" shape="215409.33,452591.34 215408.34,452589.19 215406.58,452587.77 215404.04,452587.07 215400.72,452587.10"/>
    </edge>
    <edge id=":1863143603_1" function="internal">