<?xml version="1.0" encoding="UTF-8"?>

<!-- generated on 2025-04-14 17:51:17 by Eclipse SUMO netconvert Version 1.18.0
<configuration xmlns:xsi="http://www.w3.org/2001/XMLSchema-instance" xsi:noNamespaceSchemaLocation="http://sumo.dlr.de/xsd/netconvertConfiguration.xsd">

    <input>
        <sumo-net-file value="C:\Users\Mates\Desktop\UTC\utc/data/maps/sumo/lust.net.xml"/>
    </input>

    <output>
        <output-file value="C:\Users\Mates\Desktop\UTC\utc/data/maps/sumo/lust_central.net.xml"/>
    </output>

    <processing>
        <geometry.min-radius.fix.railways value="false"/>
        <geometry.max-grade.fix value="false"/>
        <offset.disable-normalization value="true"/>
        <lefthand value="0"/>
    </processing>

    <edge_removal>
        <keep-edges.explicit value="&quot;-32080#0, &#45;&#45;31908#2, -32628, -31262#0, -32126#2, &#45;&#45;31872#1, -31376#1, &#45;&#45;31818#17, -30294#1, -30534#5, &#45;&#45;31872#0, -30534#3, -31066#5, &#45;&#45;30902#11, -32126#0, -31298#3, -31388#0, &#45;&#45;31230#4, -32484, -31908#2, &#45;&#45;32638#5, &#45;&#45;30534#2, -30398#6, &#45;&#45;31490, -32432#8, &#45;&#45;31904#0, -31232, -31886#1, -31904#1, -30546, &#45;&#45;32468#3, &#45;&#45;31298#1, -30310#0, -32638#7, -32336, &#45;&#45;31016#2, -31030, -31306#0, &#45;&#45;30398#5, -30476, -31196#2, &#45;&#45;31298#2, &#45;&#45;32634#0, -32634#0, -30902#0, -30528#24, -32280#3, &#45;&#45;31298#0, &#45;&#45;31230#3, &#45;&#45;30786, -32638#10, -31766, &#45;&#45;32638#10, -31916, &#45;&#45;30528#25, &#45;&#45;32964#2, -32832#1, -30398#0, &#45;&#45;31688#2, -32920, &#45;&#45;30534#3, &#45;&#45;30504#0, -30902#1, &#45;&#45;30694#0, &#45;&#45;31908#1, -31716, &#45;&#45;30568, &#45;&#45;32136, &#45;&#45;32146#0, -30534#2, &#45;&#45;32964#10, -30528#27, &#45;&#45;30778#0, &#45;&#45;32634#10, -30364#0, -32146#0, &#45;&#45;30398#0, &#45;&#45;31818#13, &#45;&#45;30528#13, -30534#9, -30534#4, -31490, &#45;&#45;30528#14, -31846#0, -30900, &#45;&#45;32468#5, -30678#0, -32430#0, &#45;&#45;31904#1, -31872#1, &#45;&#45;32964#11, -31886#0, -30902#11, -30398#5, -30528#12, -30528#14, &#45;&#45;30608#7, -30534#7, -32080#1, &#45;&#45;31272#2, -31818#13, &#45;&#45;32076, -30340, &#45;&#45;32916#3, -32294, &#45;&#45;32260, &#45;&#45;31388#3, -31380#0, &#45;&#45;30902#2, -32382#1, -32432#11, &#45;&#45;30694#6, -30990#1, &#45;&#45;31904#2, &#45;&#45;30902#7, -31846#2, &#45;&#45;31282, -30694#4, &#45;&#45;31196#2, &#45;&#45;32638#3, -32126#3, -32638#8, -31904#2, -32430#1, &#45;&#45;31196#1, -31946#1, -30398#2, -32004, &#45;&#45;31912#0, &#45;&#45;31030, -31912#1, &#45;&#45;31272#0, &#45;&#45;31926#0, -30398#3, &#45;&#45;30534#5, -30534#6, -30902#9, &#45;&#45;31388#0, -31818#14, &#45;&#45;31818#19, &#45;&#45;31272#1, -30528#26, -31468#0, -32634#8, -30456, -30882, &#45;&#45;32802#0, &#45;&#45;30778#2, &#45;&#45;31818#15, -32146#1, -32948#0, &#45;&#45;31076, &#45;&#45;32634#2, -30528#30, &#45;&#45;31196#0, -32638#11, -31042#2, &#45;&#45;32948#1, -32076, -32178, -30498#0, &#45;&#45;30398#7, -30608#5, &#45;&#45;31560, -30786, -31946#2, -30398#8, &#45;&#45;30608#9, &#45;&#45;31028#0, -32054#0, &#45;&#45;32410#0, &#45;&#45;32634#3, &#45;&#45;30504#1, -32468#7, &#45;&#45;32920, &#45;&#45;32634#9, -30694#7, -32126#1, &#45;&#45;30528#24, &#45;&#45;31886#3, -32802#1, -32468#1, -30420, &#45;&#45;31742#1, -32916#1, &#45;&#45;31262#1, &#45;&#45;31788, &#45;&#45;31262#0, &#45;&#45;32916#0, -30694#3, -32948#2, &#45;&#45;30364#1, &#45;&#45;32964#7, &#45;&#45;30902#4, -30344, -31388#1, &#45;&#45;32146#1, &#45;&#45;32640, -32562, -32948#1, &#45;&#45;32964#8, -31016#0, -30310#2, &#45;&#45;30398#2, &#45;&#45;30960, -32432#10, &#45;&#45;31850#0, &#45;&#45;32080#2, -32964#2, &#45;&#45;30694#3, &#45;&#45;30398#4, -32634#3, &#45;&#45;32462, &#45;&#45;30294#0, &#45;&#45;32294, -32432#14, -30504#0, -30332#1, &#45;&#45;32280#0, -30528#22, -32126#4, &#45;&#45;30950, &#45;&#45;31766, &#45;&#45;30902#0, -32136, -32964#7, -30608#10, -31818#16, &#45;&#45;32916#1, -31846#1, &#45;&#45;31818#22, &#45;&#45;30528#30, &#45;&#45;31716, -32468#2, &#45;&#45;31886#0, &#45;&#45;31808, &#45;&#45;31946#2, &#45;&#45;31168, &#45;&#45;32638#0, &#45;&#45;31818#18, &#45;&#45;31688#1, &#45;&#45;32638#2, -32060, &#45;&#45;31388#4, -31688#1, &#45;&#45;31042#0, &#45;&#45;30398#3, -30694#1, -30498#3, &#45;&#45;32432#11, -32054#1, -31230#2, -31042#0, -32948#3, &#45;&#45;30694#2, &#45;&#45;30420, &#45;&#45;32634#5, -30608#7, -31262#1, &#45;&#45;32820#1, &#45;&#45;31042#2, -32964#1, -32634#6, -30534#10, -32638#4, &#45;&#45;32126#2, &#45;&#45;32948#0, &#45;&#45;32948#3, -30498#2, &#45;&#45;32484, -32964#11, -32964#6, &#45;&#45;32054#1, &#45;&#45;30694#5, &#45;&#45;31850#2, &#45;&#45;32362, -30528#16, &#45;&#45;30498#0, &#45;&#45;31016#1, -32434, &#45;&#45;32120#0, &#45;&#45;30528#27, -32634#9, &#45;&#45;32410#3, &#45;&#45;32410#1, &#45;&#45;32468#0, &#45;&#45;30902#5, &#45;&#45;31594#0, &#45;&#45;30508#0, &#45;&#45;30528#26, -32260, -32490, -30608#6, &#45;&#45;31880, &#45;&#45;32638#9, &#45;&#45;32178, &#45;&#45;31066#4, -30528#29, -32514, &#45;&#45;30410, -30410, -30778#0, -31196#1, &#45;&#45;31908#0, -30568, &#45;&#45;30694#7, -32020#1, -32634#10, -32120#0, &#45;&#45;32280#2, &#45;&#45;30498#3, -32280#1, -30492, &#45;&#45;32964#0, -30902#10, -32020#0, &#45;&#45;31388#2, &#45;&#45;30476, -31468#1, &#45;&#45;32080#0, -30534#1, -31850#1, &#45;&#45;31468#0, -30778#1, &#45;&#45;30694#4, -32280#4, -32964#5, &#45;&#45;31272#3, &#45;&#45;31688#0, -30412#0, &#45;&#45;32638#4, &#45;&#45;30498#2, &#45;&#45;32468#6, -30902#4, -30498#1, &#45;&#45;31818#14, &#45;&#45;30534#10, -32634#7, -30694#5, -32832#3, -32132, -31890, -30628#1, &#45;&#45;32638#11, &#45;&#45;30902#6, -30528#21, -31822, -30292#1, &#45;&#45;31016#0, -31272#3, &#45;&#45;31388#1, -31912#0, -32802#0, -31298#2, -31076, -32432#9, -30852, -30534#11, -32638#9, &#45;&#45;31468#1, &#45;&#45;30546, -30608#8, -32964#4, -31818#20, &#45;&#45;32634#7, -31742#0, &#45;&#45;32020#0, &#45;&#45;30528#16, -32638#3, &#45;&#45;30534#1, -31818#18, &#45;&#45;32964#6, -31142, -31388#4, &#45;&#45;32126#0, &#45;&#45;30608#10, -31850#2, &#45;&#45;30534#7, &#45;&#45;32120#1, -32634#5, &#45;&#45;31886#1, &#45;&#45;30528#12, &#45;&#45;31230#5, -31272#0, &#45;&#45;31742#0, &#45;&#45;32820#0, -32696#1, &#45;&#45;30678#0, &#45;&#45;32468#1, -31282, -31016#2, -30528#15, &#45;&#45;32634#1, &#45;&#45;31232, -30990#0, -31818#15, &#45;&#45;30902#8, -31886#3, &#45;&#45;30294#1, &#45;&#45;30608#8, -30678#1, -30960, -31168, -30630#1, &#45;&#45;32126#1, -30608#9, &#45;&#45;32434, &#45;&#45;32964#5, -31818#12, &#45;&#45;31818#12, -30950, -32468#6, &#45;&#45;32432#9, &#45;&#45;32054#0, -30398#7, -31908#0, &#45;&#45;32964#1, -31066#4, -31298#4, &#45;&#45;32448, -32964#8, -31594#0, -30628#2, -31272#2, -31846#3, -30548, &#45;&#45;30900, &#45;&#45;32964#4, &#45;&#45;30608#6, -31230#4, -31818#17, &#45;&#45;32280#3, -31028#1, &#45;&#45;30694#1, &#45;&#45;32420, &#45;&#45;30534#9, -30528#23, &#45;&#45;31702#0, -32774#1, &#45;&#45;32638#7, &#45;&#45;32468#7, -30508#1, &#45;&#45;30344, -32468#5, &#45;&#45;30528#21, -31388#3, -32820#0, -31782, &#45;&#45;32634#6, &#45;&#45;32638#8, &#45;&#45;30364#2, -31886#2, -31560, -31298#1, -31298#0, -32280#2, -30398#1, -31388#2, -30694#0, -31984, &#45;&#45;32916#2, &#45;&#45;30398#6, -32774#2, &#45;&#45;30528#19, -30528#13, &#45;&#45;32410#2, -32964#0, &#45;&#45;30528#23, -31196#0, -32638#5, -30758, -32080#2, &#45;&#45;32080#1, -30474#1, -31272#1, &#45;&#45;30456, -32634#2, &#45;&#45;32432#12, &#45;&#45;31230#2, -30292#3, &#45;&#45;32432#13, -30778#2, &#45;&#45;31984, -30902#5, &#45;&#45;31818#23, -30528#19, -30474#0, -30902#2, &#45;&#45;31042#1, -32410#2, -32634#4, -31376#0, &#45;&#45;32802#1, -32964#10, -32832#4, -30528#28, -32468#0, -30528#20, -32448, &#45;&#45;31298#4, &#45;&#45;30630#1, &#45;&#45;30492, -30398#9, -32432#15, &#45;&#45;32696#0, &#45;&#45;32432#10, -32420, &#45;&#45;30528#15, -32964#9, &#45;&#45;31886#2, -31908#1, -30364#1, -30292#2, &#45;&#45;32126#3, -32432#12, -31872#0, &#45;&#45;32126#4, &#45;&#45;30528#22, -32820#1, -32362, -31926#1, -31904#0, -32120#1, -32964#3, -32638#2, -31016#1, -30694#2, -31818#11, -32410#0, -32916#2, -32280#0, -30528#17, -32410#1, &#45;&#45;30528#18, -31818#23, &#45;&#45;31028#1, -31788, -30628#0, -32468#3, &#45;&#45;32696#1, &#45;&#45;31890, -30292#0, &#45;&#45;32468#2, -31818#19, -31308, &#45;&#45;32634#4, -31230#5, &#45;&#45;30902#10, -30412#1, -31850#0, -31306#1, &#45;&#45;30508#1, -30534#8, &#45;&#45;32432#15, -30332#0, &#45;&#45;30528#28, &#45;&#45;32638#1, &#45;&#45;30902#3, -31044, -30310#3, -31702#0, -30902#7, &#45;&#45;30608#5, &#45;&#45;30902#9, &#45;&#45;30902#1, -32382#2, -31880, &#45;&#45;31818#11, &#45;&#45;31782, -30902#6, &#45;&#45;30398#8, &#45;&#45;31818#21, &#45;&#45;31818#20, -30508#0, -31042#1, &#45;&#45;30534#0, &#45;&#45;30534#8, -31742#1, &#45;&#45;30778#1, &#45;&#45;31850#1, -30902#3, &#45;&#45;31946#0, -31040, -30868, -32916#0, -31926#0, &#45;&#45;32964#9, -31754, -32850, -32432#13, &#45;&#45;30528#20, -32014, &#45;&#45;32468#4, &#45;&#45;32280#1, &#45;&#45;30534#6, -32468#4, &#45;&#45;32432#14, &#45;&#45;32964#3, -30528#25, -31688#0, -32832#2, -31688#2, -32462, -31946#0, &#45;&#45;32948#2, &#45;&#45;30534#4, &#45;&#45;30528#29, -31028#0, -30528#11, &#45;&#45;31912#1, &#45;&#45;31818#16, &#45;&#45;30398#9, &#45;&#45;32004, &#45;&#45;30364#0, &#45;&#45;31298#3, -32638#1, &#45;&#45;32432#8, -32854, -30294#0, -30504#1, &#45;&#45;30534#11, &#45;&#45;31926#1, &#45;&#45;32634#8, &#45;&#45;30498#1, -31808, -31818#22, -32638#0, -30398#4, -31230#3, -30694#6, -32640, &#45;&#45;30528#17, &#45;&#45;32020#1, -30364#2, -30528#18, -32696#0, &#45;&#45;31380#0, -32916#3, -32774#0, -30902#8, &#45;&#45;30678#1, -32382#0, &#45;&#45;31946#1, &#45;&#45;32280#4, &#45;&#45;30528#11, -30310#1, &#45;&#45;30398#1, &#45;&#45;31066#5, -30534#0, -32634#1, -31818#21, -32410#3&quot;"/>
    </edge_removal>

    <junctions>
        <no-turnarounds value="true"/>
        <junctions.corner-detail value="0"/>
        <junctions.limit-turn-speed value="-1.00"/>
        <rectangular-lane-cut value="0"/>
    </junctions>

    <pedestrian>
        <walkingareas value="0"/>
    </pedestrian>

</configuration>
-->

<net version="1.16" xmlns:xsi="http://www.w3.org/2001/XMLSchema-instance" xsi:noNamespaceSchemaLocation="http://sumo.dlr.de/xsd/net_file.xsd">

    <location netOffset="-285448.66,-5492398.13" convBoundary="6811.12,4592.10,8902.16,6648.29" origBoundary="6.030969,49.549099,6.216758,49.652578" projParameter="+proj=utm +zone=32 +ellps=WGS84 +datum=WGS84 +units=m +no_defs"/>

    <edge id=":-10004_0" function="internal">
        <lane id=":-10004_0_0" index="0" speed="13.89" length="10.63" shape="7988.66,6485.74 7986.21,6483.97 7984.54,6482.73 7982.81,6481.62 7980.15,6480.20"/>
        <lane id=":-10004_0_1" index="1" speed="13.89" length="10.63" shape="7990.49,6483.12 7987.93,6481.27 7986.18,6479.98 7984.37,6478.82 7981.59,6477.34"/>
        <lane id=":-10004_0_2" index="2" speed="13.89" length="10.63" shape="7992.32,6480.49 7989.65,6478.57 7987.82,6477.23 7985.92,6476.02 7983.02,6474.48"/>
    </edge>
    <edge id=":-10004_3" function="internal">
        <lane id=":-10004_3_0" index="0" speed="13.89" length="3.73" shape="7992.32,6480.49 7989.77,6477.77"/>
    </edge>
    <edge id=":-10004_8" function="internal">
        <lane id=":-10004_8_0" index="0" speed="13.89" length="14.57" shape="7989.77,6477.77 7989.46,6477.45 7989.47,6474.30 7992.34,6471.05 7998.08,6467.70"/>
    </edge>
    <edge id=":-10004_4" function="internal">
        <lane id=":-10004_4_0" index="0" speed="13.89" length="11.22" shape="7987.34,6465.90 7990.66,6467.35 7993.55,6468.13 7996.03,6468.25 7998.08,6467.70"/>
    </edge>
    <edge id=":-10004_5" function="internal">
        <lane id=":-10004_5_0" index="0" speed="13.89" length="12.13" shape="7985.90,6468.76 7989.40,6470.05 7992.03,6470.40 7994.57,6470.90 7997.81,6472.62"/>
        <lane id=":-10004_5_1" index="1" speed="13.89" length="12.13" shape="7984.46,6471.62 7987.84,6472.84 7990.39,6473.15 7992.85,6473.60 7995.98,6475.24"/>
        <lane id=":-10004_5_2" index="2" speed="13.89" length="12.13" shape="7984.46,6471.62 7987.48,6473.23 7989.47,6474.48 7991.37,6475.86 7994.15,6477.87"/>
    </edge>
    <edge id=":-1004_0" function="internal">
        <lane id=":-1004_0_0" index="0" speed="13.89" length="3.47" shape="7314.74,6254.62 7314.26,6253.71 7313.88,6253.11 7313.43,6252.57 7312.72,6251.84"/>
    </edge>
    <edge id=":-10132_0" function="internal">
        <lane id=":-10132_0_0" index="0" speed="13.89" length="9.05" shape="7989.59,5126.90 7988.71,5124.52 7987.29,5123.12 7985.35,5122.69 7982.88,5123.23"/>
    </edge>
    <edge id=":-10132_1" function="internal">
        <lane id=":-10132_1_0" index="0" speed="13.89" length="13.84" shape="7989.59,5126.90 7988.94,5123.37 7988.66,5120.02 7988.83,5116.68 7989.57,5113.21"/>
    </edge>
    <edge id=":-10132_2" function="internal">
        <lane id=":-10132_2_0" index="0" speed="13.89" length="12.28" shape="7992.64,5114.11 7991.91,5117.34 7991.76,5120.13 7992.06,5122.94 7992.72,5126.22"/>
    </edge>
    <edge id=":-10132_3" function="internal">
        <lane id=":-10132_3_0" index="0" speed="13.89" length="3.15" shape="7992.64,5114.11 7991.36,5116.98"/>
    </edge>
    <edge id=":-10132_6" function="internal">
        <lane id=":-10132_6_0" index="0" speed="13.89" length="10.70" shape="7991.36,5116.98 7989.30,5119.46 7986.47,5121.54 7982.88,5123.23"/>
    </edge>
    <edge id=":-10132_4" function="internal">
        <lane id=":-10132_4_0" index="0" speed="13.89" length="10.89" shape="7981.75,5120.23 7984.67,5118.89 7986.94,5117.27 7988.58,5115.37 7989.57,5113.21"/>
    </edge>
    <edge id=":-10132_5" function="internal">
        <lane id=":-10132_5_0" index="0" speed="13.89" length="14.78" shape="7981.75,5120.23 7985.80,5119.35 7988.97,5120.06 7991.28,5122.35 7992.72,5126.22"/>
    </edge>
    <edge id=":-10204_0" function="internal">
        <lane id=":-10204_0_0" index="0" speed="13.89" length="9.64" shape="7757.14,5047.48 7756.19,5044.58 7754.87,5043.40 7753.19,5043.95 7751.15,5046.22"/>
    </edge>
    <edge id=":-10204_1" function="internal">
        <lane id=":-10204_1_0" index="0" speed="13.89" length="26.52" shape="7757.14,5047.48 7754.98,5036.56 7753.56,5028.56 7752.90,5023.49 7752.98,5021.34"/>
        <lane id=":-10204_1_1" index="1" speed="13.89" length="24.68" shape="7757.14,5047.48 7755.48,5038.32 7754.68,5031.21 7754.73,5026.14 7755.64,5023.12"/>
    </edge>
    <edge id=":-10204_3" function="internal">
        <lane id=":-10204_3_0" index="0" speed="13.89" length="19.18" shape="7763.62,5028.46 7761.37,5032.66 7760.06,5037.12 7759.70,5041.85 7760.28,5046.84"/>
    </edge>
    <edge id=":-10204_4" function="internal">
        <lane id=":-10204_4_0" index="0" speed="13.89" length="21.61" shape="7763.62,5028.46 7751.15,5046.22"/>
        <lane id=":-10204_4_1" index="1" speed="13.89" length="21.61" shape="7760.96,5026.68 7748.54,5044.36"/>
        <lane id=":-10204_4_2" index="2" speed="13.89" length="21.61" shape="7758.30,5024.90 7745.93,5042.51"/>
    </edge>
    <edge id=":-10204_7" function="internal">
        <lane id=":-10204_7_0" index="0" speed="13.89" length="21.34" shape="7738.11,5036.95 7750.32,5019.56"/>
        <lane id=":-10204_7_1" index="1" speed="13.89" length="21.34" shape="7740.71,5038.80 7752.98,5021.34"/>
        <lane id=":-10204_7_2" index="2" speed="13.89" length="21.34" shape="7743.32,5040.66 7755.64,5023.12"/>
    </edge>
    <edge id=":-10204_10" function="internal">
        <lane id=":-10204_10_0" index="0" speed="13.89" length="2.64" shape="7743.32,5040.66 7745.38,5039.00"/>
    </edge>
    <edge id=":-10204_11" function="internal">
        <lane id=":-10204_11_0" index="0" speed="13.89" length="21.08" shape="7745.38,5039.00 7748.14,5036.79 7753.22,5037.00 7757.59,5040.58 7760.28,5046.84"/>
    </edge>
    <edge id=":-10258_0" function="internal">
        <lane id=":-10258_0_0" index="0" speed="13.89" length="9.05" shape="7941.55,5754.86 7939.24,5753.80 7937.25,5753.81 7935.59,5754.89 7934.25,5757.05"/>
    </edge>
    <edge id=":-10258_1" function="internal">
        <lane id=":-10258_1_0" index="0" speed="13.89" length="22.13" shape="7941.55,5754.86 7922.96,5742.86"/>
    </edge>
    <edge id=":-10258_2" function="internal">
        <lane id=":-10258_2_0" index="0" speed="13.89" length="5.70" shape="7941.55,5754.86 7937.25,5751.37 7937.16,5751.23"/>
    </edge>
    <edge id=":-10258_14" function="internal">
        <lane id=":-10258_14_0" index="0" speed="13.89" length="13.09" shape="7937.16,5751.23 7934.71,5747.57 7933.91,5743.47 7934.87,5739.07"/>
    </edge>
    <edge id=":-10258_3" function="internal">
        <lane id=":-10258_3_0" index="0" speed="13.89" length="12.05" shape="7940.80,5741.46 7939.87,5744.84 7939.97,5747.75 7941.11,5750.19 7943.28,5752.17"/>
    </edge>
    <edge id=":-10258_4" function="internal">
        <lane id=":-10258_4_0" index="0" speed="13.89" length="16.86" shape="7940.80,5741.46 7934.25,5757.05"/>
        <lane id=":-10258_4_1" index="1" speed="13.89" length="16.86" shape="7937.83,5740.27 7931.32,5755.76"/>
    </edge>
    <edge id=":-10258_6" function="internal">
        <lane id=":-10258_6_0" index="0" speed="13.89" length="4.27" shape="7937.83,5740.27 7935.56,5743.88"/>
    </edge>
    <edge id=":-10258_15" function="internal">
        <lane id=":-10258_15_0" index="0" speed="13.89" length="13.72" shape="7935.56,5743.88 7935.44,5744.06 7932.17,5745.75 7928.01,5745.35 7922.96,5742.86"/>
    </edge>
    <edge id=":-10258_7" function="internal">
        <lane id=":-10258_7_0" index="0" speed="13.89" length="9.06" shape="7924.69,5740.17 7927.01,5741.23 7928.99,5741.20 7930.62,5740.09 7931.90,5737.88"/>
    </edge>
    <edge id=":-10258_8" function="internal">
        <lane id=":-10258_8_0" index="0" speed="13.89" length="22.13" shape="7924.69,5740.17 7943.28,5752.17"/>
    </edge>
    <edge id=":-10258_9" function="internal">
        <lane id=":-10258_9_0" index="0" speed="13.89" length="5.78" shape="7924.69,5740.17 7929.04,5743.68 7929.15,5743.84"/>
    </edge>
    <edge id=":-10258_16" function="internal">
        <lane id=":-10258_16_0" index="0" speed="13.89" length="12.87" shape="7929.15,5743.84 7931.60,5747.45 7932.36,5751.48 7931.32,5755.76"/>
    </edge>
    <edge id=":-10258_10" function="internal">
        <lane id=":-10258_10_0" index="0" speed="13.89" length="11.73" shape="7925.46,5753.18 7926.42,5749.99 7926.33,5747.21 7925.17,5744.83 7922.96,5742.86"/>
    </edge>
    <edge id=":-10258_11" function="internal">
        <lane id=":-10258_11_0" index="0" speed="13.89" length="16.66" shape="7925.46,5753.18 7931.90,5737.88"/>
        <lane id=":-10258_11_1" index="1" speed="13.89" length="16.66" shape="7928.39,5754.47 7934.87,5739.07"/>
    </edge>
    <edge id=":-10258_13" function="internal">
        <lane id=":-10258_13_0" index="0" speed="13.89" length="3.64" shape="7928.39,5754.47 7930.43,5751.46"/>
    </edge>
    <edge id=":-10258_17" function="internal">
        <lane id=":-10258_17_0" index="0" speed="13.89" length="14.15" shape="7930.43,5751.46 7930.85,5750.85 7934.15,5749.25 7938.30,5749.69 7943.28,5752.17"/>
    </edge>
    <edge id=":-10284_0" function="internal">
        <lane id=":-10284_0_0" index="0" speed="13.89" length="11.28" shape="7928.13,4853.79 7925.20,4852.62 7923.06,4851.38 7920.91,4850.12 7917.99,4848.91"/>
    </edge>
    <edge id=":-10284_1" function="internal">
        <lane id=":-10284_1_0" index="0" speed="13.89" length="10.32" shape="7921.12,4857.46 7921.74,4854.36 7921.43,4851.91 7920.18,4850.09 7917.99,4848.91"/>
    </edge>
    <edge id=":-10284_2" function="internal">
        <lane id=":-10284_2_0" index="0" speed="13.89" length="11.68" shape="7921.12,4857.46 7922.62,4853.91 7924.44,4851.60 7926.59,4850.54 7929.07,4850.73"/>
    </edge>
    <edge id=":-10518_0" function="internal">
        <lane id=":-10518_0_0" index="0" speed="13.89" length="22.26" shape="7250.53,5513.35 7228.64,5515.64"/>
        <lane id=":-10518_0_1" index="1" speed="13.89" length="22.26" shape="7250.25,5510.16 7228.11,5512.49"/>
        <lane id=":-10518_0_2" index="2" speed="13.89" length="22.26" shape="7249.96,5506.97 7227.59,5509.33"/>
    </edge>
    <edge id=":-10518_3" function="internal">
        <lane id=":-10518_3_0" index="0" speed="13.89" length="3.07" shape="7249.96,5506.97 7246.92,5506.56"/>
    </edge>
    <edge id=":-10518_11" function="internal">
        <lane id=":-10518_11_0" index="0" speed="13.89" length="23.62" shape="7246.92,5506.56 7242.77,5506.01 7238.54,5502.13 7237.48,5496.14 7239.80,5488.88"/>
    </edge>
    <edge id=":-10518_4" function="internal">
        <lane id=":-10518_4_0" index="0" speed="13.89" length="9.31" shape="7245.45,5491.89 7244.45,5494.54 7244.72,5496.34 7246.28,5497.30 7249.10,5497.41"/>
    </edge>
    <edge id=":-10518_5" function="internal">
        <lane id=":-10518_5_0" index="0" speed="13.89" length="26.62" shape="7242.62,5490.38 7237.40,5499.87 7233.23,5506.71 7230.14,5510.92 7228.11,5512.49"/>
        <lane id=":-10518_5_1" index="1" speed="13.89" length="24.63" shape="7242.62,5490.38 7238.08,5498.34 7234.05,5504.14 7230.56,5507.81 7227.59,5509.33"/>
    </edge>
    <edge id=":-10518_7" function="internal">
        <lane id=":-10518_7_0" index="0" speed="13.89" length="17.01" shape="7226.01,5499.86 7228.47,5498.78 7231.12,5496.34 7233.95,5492.54 7236.98,5487.37"/>
    </edge>
    <edge id=":-10518_8" function="internal">
        <lane id=":-10518_8_0" index="0" speed="13.89" length="22.98" shape="7226.01,5499.86 7249.10,5497.41"/>
        <lane id=":-10518_8_1" index="1" speed="13.89" length="22.98" shape="7226.54,5503.02 7249.39,5500.60"/>
        <lane id=":-10518_8_2" index="2" speed="13.89" length="22.98" shape="7227.06,5506.17 7249.68,5503.78"/>
    </edge>
    <edge id=":-10666_0" function="internal">
        <lane id=":-10666_0_0" index="0" speed="15.28" length="9.03" shape="8243.78,5457.38 8241.31,5457.14 8239.37,5457.76 8237.95,5459.22 8237.05,5461.53"/>
    </edge>
    <edge id=":-10666_1" function="internal">
        <lane id=":-10666_1_0" index="0" speed="16.67" length="14.35" shape="8243.78,5457.38 8229.84,5453.89"/>
        <lane id=":-10666_1_1" index="1" speed="16.67" length="14.35" shape="8244.53,5454.27 8230.64,5450.79"/>
    </edge>
    <edge id=":-10666_3" function="internal">
        <lane id=":-10666_3_0" index="0" speed="16.67" length="14.24" shape="8232.25,5444.60 8246.04,5448.05"/>
        <lane id=":-10666_3_1" index="1" speed="16.67" length="14.24" shape="8231.44,5447.69 8245.28,5451.16"/>
    </edge>
    <edge id=":-10666_5" function="internal">
        <lane id=":-10666_5_0" index="0" speed="15.28" length="3.55" shape="8231.44,5447.69 8234.64,5449.23"/>
    </edge>
    <edge id=":-10666_8" function="internal">
        <lane id=":-10666_8_0" index="0" speed="15.28" length="13.25" shape="8234.64,5449.23 8234.92,5449.37 8237.01,5452.23 8237.72,5456.28 8237.05,5461.53"/>
    </edge>
    <edge id=":-10666_6" function="internal">
        <lane id=":-10666_6_0" index="0" speed="15.28" length="9.11" shape="8233.94,5460.80 8234.16,5458.30 8233.55,5456.31 8232.11,5454.84 8229.84,5453.89"/>
    </edge>
    <edge id=":-10666_7" function="internal">
        <lane id=":-10666_7_0" index="0" speed="15.28" length="16.90" shape="8233.94,5460.80 8235.67,5455.80 8238.14,5452.53 8241.34,5450.98 8245.28,5451.16"/>
    </edge>
    <edge id=":-10750_0" function="internal">
        <lane id=":-10750_0_0" index="0" speed="13.89" length="14.69" shape="8538.08,5346.34 8523.50,5344.57"/>
    </edge>
    <edge id=":-10750_1" function="internal">
        <lane id=":-10750_1_0" index="0" speed="13.89" length="4.35" shape="8538.08,5346.34 8534.20,5345.42 8533.91,5345.20"/>
    </edge>
    <edge id=":-10750_6" function="internal">
        <lane id=":-10750_6_0" index="0" speed="13.89" length="10.09" shape="8533.91,5345.20 8531.63,5343.47 8530.36,5340.50 8530.41,5336.51"/>
    </edge>
    <edge id=":-10750_2" function="internal">
        <lane id=":-10750_2_0" index="0" speed="13.89" length="9.04" shape="8533.57,5337.00 8533.54,5339.50 8534.33,5341.36 8535.94,5342.58 8538.37,5343.16"/>
    </edge>
    <edge id=":-10750_3" function="internal">
        <lane id=":-10750_3_0" index="0" speed="13.89" length="14.36" shape="8533.57,5337.00 8532.42,5340.81 8530.36,5343.35 8527.38,5344.60 8523.50,5344.57"/>
    </edge>
    <edge id=":-10750_4" function="internal">
        <lane id=":-10750_4_0" index="0" speed="13.89" length="9.21" shape="8523.98,5341.41 8526.46,5341.42 8528.35,5340.61 8529.67,5338.97 8530.41,5336.51"/>
    </edge>
    <edge id=":-10750_5" function="internal">
        <lane id=":-10750_5_0" index="0" speed="13.89" length="14.50" shape="8523.98,5341.41 8538.37,5343.16"/>
    </edge>
    <edge id=":-10780_0" function="internal">
        <lane id=":-10780_0_0" index="0" speed="13.89" length="19.94" shape="8312.34,5853.97 8312.82,5859.92 8312.48,5864.08 8311.57,5868.23 8310.33,5874.14"/>
        <lane id=":-10780_0_1" index="1" speed="13.89" length="19.94" shape="8309.17,5854.39 8309.63,5860.08 8309.28,5864.01 8308.38,5867.92 8307.18,5873.58"/>
    </edge>
    <edge id=":-10780_2" function="internal">
        <lane id=":-10780_2_0" index="0" speed="13.89" length="2.73" shape="8309.17,5854.39 8308.65,5857.07"/>
    </edge>
    <edge id=":-10780_8" function="internal">
        <lane id=":-10780_8_0" index="0" speed="13.89" length="17.81" shape="8308.65,5857.07 8308.60,5857.33 8306.18,5860.76 8301.91,5864.69 8295.79,5869.11"/>
    </edge>
    <edge id=":-10780_3" function="internal">
        <lane id=":-10780_3_0" index="0" speed="13.89" length="14.87" shape="8294.02,5866.44 8298.12,5863.39 8300.95,5860.50 8302.52,5857.78 8302.82,5855.22"/>
    </edge>
    <edge id=":-10780_4" function="internal">
        <lane id=":-10780_4_0" index="0" speed="13.89" length="23.70" shape="8294.02,5866.44 8300.98,5862.82 8305.50,5862.80 8307.56,5866.39 8307.18,5873.58"/>
    </edge>
    <edge id=":-10780_5" function="internal">
        <lane id=":-10780_5_0" index="0" speed="13.89" length="9.67" shape="8300.88,5872.45 8301.07,5869.39 8300.29,5867.81 8298.53,5867.71 8295.79,5869.11"/>
    </edge>
    <edge id=":-10780_6" function="internal">
        <lane id=":-10780_6_0" index="0" speed="13.89" length="17.98" shape="8300.88,5872.45 8301.98,5867.37 8302.85,5863.86 8303.21,5860.34 8302.82,5855.22"/>
        <lane id=":-10780_6_1" index="1" speed="13.89" length="17.98" shape="8304.03,5873.01 8305.18,5867.64 8306.06,5863.93 8306.42,5860.21 8306.00,5854.80"/>
    </edge>
    <edge id=":-10854_0" function="internal">
        <lane id=":-10854_0_0" index="0" speed="13.89" length="11.09" shape="8193.63,4944.34 8182.58,4943.44"/>
    </edge>
    <edge id=":-10854_1" function="internal">
        <lane id=":-10854_1_0" index="0" speed="13.89" length="10.85" shape="8182.95,4940.26 8193.76,4941.14"/>
    </edge>
    <edge id=":-10854_2" function="internal">
        <lane id=":-10854_2_0" index="0" speed="13.89" length="9.04" shape="8187.27,4949.70 8187.34,4947.21 8186.57,4945.34 8184.99,4944.08 8182.58,4943.44"/>
    </edge>
    <edge id=":-10854_3" function="internal">
        <lane id=":-10854_3_0" index="0" speed="13.89" length="11.74" shape="8187.27,4949.70 8188.24,4945.88 8189.64,4943.18 8191.48,4941.60 8193.76,4941.14"/>
    </edge>
    <edge id=":-10960_0" function="internal">
        <lane id=":-10960_0_0" index="0" speed="13.89" length="14.17" shape="7199.16,5094.74 7187.51,5086.67"/>
    </edge>
    <edge id=":-10960_1" function="internal">
        <lane id=":-10960_1_0" index="0" speed="13.89" length="3.84" shape="7199.16,5094.74 7196.39,5092.08"/>
    </edge>
    <edge id=":-10960_6" function="internal">
        <lane id=":-10960_6_0" index="0" speed="13.89" length="10.24" shape="7196.39,5092.08 7195.10,5089.16 7195.32,5085.98 7197.02,5082.52"/>
    </edge>
    <edge id=":-10960_2" function="internal">
        <lane id=":-10960_2_0" index="0" speed="13.89" length="8.99" shape="7199.66,5084.33 7198.57,5086.54 7198.43,5088.58 7199.25,5090.44 7201.02,5092.13"/>
    </edge>
    <edge id=":-10960_3" function="internal">
        <lane id=":-10960_3_0" index="0" speed="13.89" length="14.09" shape="7199.66,5084.33 7197.06,5087.17 7194.17,5088.51 7190.98,5088.35 7187.51,5086.67"/>
    </edge>
    <edge id=":-10960_4" function="internal">
        <lane id=":-10960_4_0" index="0" speed="13.89" length="8.97" shape="7189.28,5084.02 7191.50,5085.08 7193.52,5085.18 7195.37,5084.33 7197.02,5082.52"/>
    </edge>
    <edge id=":-10960_5" function="internal">
        <lane id=":-10960_5_0" index="0" speed="13.89" length="14.27" shape="7189.28,5084.02 7201.02,5092.13"/>
    </edge>
    <edge id=":-11162_0" function="internal">
        <lane id=":-11162_0_0" index="0" speed="15.28" length="9.79" shape="7733.32,5501.42 7734.47,5504.01 7736.04,5505.80 7738.00,5506.78 7740.38,5506.95"/>
        <lane id=":-11162_0_1" index="1" speed="15.28" length="14.17" shape="7730.27,5502.39 7731.92,5506.04 7734.21,5508.55 7737.12,5509.92 7740.66,5510.14"/>
    </edge>
    <edge id=":-11162_2" function="internal">
        <lane id=":-11162_2_0" index="0" speed="15.28" length="8.85" shape="7720.68,5511.31 7722.82,5510.20 7724.12,5508.66 7724.57,5506.71 7724.17,5504.32"/>
        <lane id=":-11162_2_1" index="1" speed="15.28" length="13.90" shape="7721.73,5514.33 7725.10,5512.58 7727.14,5510.17 7727.85,5507.10 7727.22,5503.35"/>
    </edge>
    <edge id=":-11162_4" function="internal">
        <lane id=":-11162_4_0" index="0" speed="13.89" length="19.07" shape="7722.79,5517.35 7728.07,5515.00 7731.54,5512.88 7735.10,5511.18 7740.66,5510.14"/>
        <lane id=":-11162_4_1" index="1" speed="13.89" length="19.07" shape="7722.79,5517.35 7728.03,5515.54 7731.69,5514.50 7735.44,5513.88 7740.95,5513.33"/>
    </edge>
    <edge id=":-1136_0" function="internal">